<?xml version="1.0" encoding="UTF-8"?>

<!-- generated on 2023-03-27 23:00:10 by Eclipse SUMO netconvert Version 1.15.0
<configuration xmlns:xsi="http://www.w3.org/2001/XMLSchema-instance" xsi:noNamespaceSchemaLocation="http://sumo.dlr.de/xsd/netconvertConfiguration.xsd">

    <input>
        <osm-files value="WBeaverAve.osm"/>
    </input>

    <output>
        <opendrive-output value="t.xodr"/>
    </output>

    <projection>
        <proj.utm value="true"/>
    </projection>

</configuration>
-->

<OpenDRIVE>
    <header revMajor="1" revMinor="4" name="" version="1.00" date="Mon Mar 27 23:00:10 2023" north="603.55" south="0.00" east="742.20" west="0.00">
        <geoReference>
 <![CDATA[
 +proj=utm +zone=18 +ellps=WGS84 +datum=WGS84 +units=m +no_defs
]]>
        </geoReference>
        <offset x="-258020.88" y="-4519459.88" z="0.00" hdg="0"/>
    </header>
    <road name="" length="25.50579882" id="2780" junction="-1">
        <link>
            <predecessor elementType="junction" elementId="1"/>
            <successor elementType="junction" elementId="2"/>
        </link>
        <type s="0" type="town"/>
        <planView>
            <geometry s="0.00000000" x="558.87235423" y="313.17577010" hdg="0.72967242" length="25.50579882">
                <line/>
            </geometry>
        </planView>
        <elevationProfile>
            <elevation s="0" a="0.00" b="0" c="0" d="0"/>
        </elevationProfile>
        <lateralProfile/>
        <lanes>
            <laneSection s="0">
                <center>
                    <lane id="0" type="none" level="true">
                        <link/>
                        <roadMark sOffset="0" type="solid" weight="standard" color="standard" width="0.13"/>
                    </lane>
                </center>
                <right>
                    <lane id="-1" type="restricted" level="true">
                        <link/>
                        <width sOffset="0" a="3.20" b="0" c="0" d="0"/>
                        <roadMark sOffset="0" type="solid" weight="standard" color="standard" width="0.13"/>
                        <speed sOffset="0" max="5.56"/>
                    </lane>
                 </right>
            </laneSection>
        </lanes>
        <objects/>
        <signals/>
    </road>
    <road name="" length="26.48814161" id="2781" junction="-1">
        <link>
            <predecessor elementType="junction" elementId="3"/>
            <successor elementType="junction" elementId="4"/>
        </link>
        <type s="0" type="town"/>
        <planView>
            <geometry s="0.00000000" x="510.95570784" y="303.27896611" hdg="2.31770441" length="26.48814161">
                <line/>
            </geometry>
        </planView>
        <elevationProfile>
            <elevation s="0" a="0.00" b="0" c="0" d="0"/>
        </elevationProfile>
        <lateralProfile/>
        <lanes>
            <laneSection s="0">
                <center>
                    <lane id="0" type="none" level="true">
                        <link/>
                        <roadMark sOffset="0" type="solid" weight="standard" color="standard" width="0.13"/>
                    </lane>
                </center>
                <right>
                    <lane id="-1" type="restricted" level="true">
                        <link/>
                        <width sOffset="0" a="3.20" b="0" c="0" d="0"/>
                        <roadMark sOffset="0" type="solid" weight="standard" color="standard" width="0.13"/>
                        <speed sOffset="0" max="5.56"/>
                    </lane>
                 </right>
            </laneSection>
        </lanes>
        <objects/>
        <signals/>
    </road>
    <road name="" length="12.31760972" id="2782" junction="-1">
        <link>
            <predecessor elementType="junction" elementId="5"/>
            <successor elementType="junction" elementId="6"/>
        </link>
        <type s="0" type="town"/>
        <planView>
            <geometry s="0.00000000" x="530.22704643" y="337.42553396" hdg="-0.83547115" length="12.31760972">
                <line/>
            </geometry>
        </planView>
        <elevationProfile>
            <elevation s="0" a="0.00" b="0" c="0" d="0"/>
        </elevationProfile>
        <lateralProfile/>
        <lanes>
            <laneSection s="0">
                <center>
                    <lane id="0" type="none" level="true">
                        <link/>
                        <roadMark sOffset="0" type="solid" weight="standard" color="standard" width="0.13"/>
                    </lane>
                </center>
                <right>
                    <lane id="-1" type="restricted" level="true">
                        <link/>
                        <width sOffset="0" a="3.20" b="0" c="0" d="0"/>
                        <roadMark sOffset="0" type="solid" weight="standard" color="standard" width="0.13"/>
                        <speed sOffset="0" max="5.56"/>
                    </lane>
                 </right>
            </laneSection>
        </lanes>
        <objects/>
        <signals/>
    </road>
    <road name="South Fraser Street" length="51.74572390" id="2783" junction="-1">
        <link>
            <predecessor elementType="junction" elementId="7"/>
            <successor elementType="junction" elementId="8"/>
        </link>
        <type s="0" type="town"/>
        <planView>
            <geometry s="0.00000000" x="496.90504374" y="276.96001006" hdg="-0.87870544" length="11.70410459">
                <line/>
            </geometry>
            <geometry s="11.70410459" x="504.37399912" y="267.94886309" hdg="-0.87870544" length="9.90830644">
                <paramPoly3 aU="0.00000000" bU="7.42578548" cU="7.32138912" dU="-4.91222777" aV="0.00000000" bV="-0.00000000" cV="-2.24930988" dV="1.10713712" pRange="normalized"/>
            </geometry>
            <geometry s="21.61241102" x="509.77078039" y="259.64793002" hdg="-1.03790690" length="6.48247812">
                <paramPoly3 aU="0.00000000" bU="4.86054585" cU="4.84102749" dU="-3.23522011" aV="0.00000000" bV="0.00000000" cV="-0.81576155" dV="0.38435831" pRange="normalized"/>
            </geometry>
            <geometry s="28.09488915" x="512.68425857" y="253.85902014" hdg="-1.13650163" length="11.16193498">
                <paramPoly3 aU="0.00000000" bU="8.37129573" cU="8.36817871" dU="-5.57967028" aV="0.00000000" bV="-0.00000000" cV="-0.41086711" dV="0.20365930" pRange="normalized"/>
            </geometry>
            <geometry s="39.25682412" x="517.19200487" y="243.64802669" hdg="-1.16168036" length="1.68102326">
                <paramPoly3 aU="0.00000000" bU="1.26066812" cU="1.25603523" dU="-0.83743420" aV="0.00000000" bV="-0.00000000" cV="-0.19726257" dV="0.12344471" pRange="normalized"/>
            </geometry>
            <geometry s="40.93784739" x="517.79228959" y="242.07797821" hdg="-1.18087058" length="10.60787651">
                <paramPoly3 aU="0.00000000" bU="7.95555115" cU="7.96040323" dU="-5.30863434" aV="0.00000000" bV="0.00000000" cV="-0.15997894" dV="0.20155964" pRange="normalized"/>
            </geometry>
            <geometry s="51.54572390" x="521.86280086" y="232.28267804" hdg="-1.14507396" length="0.20000000">
                <line/>
            </geometry>
        </planView>
        <elevationProfile>
            <elevation s="0" a="0.00" b="0" c="0" d="0"/>
        </elevationProfile>
        <lateralProfile/>
        <lanes>
            <laneSection s="0">
                <center>
                    <lane id="0" type="none" level="true">
                        <link/>
                        <roadMark sOffset="0" type="solid" weight="standard" color="standard" width="0.13"/>
                    </lane>
                </center>
                <right>
                    <lane id="-1" type="driving" level="true">
                        <link/>
                        <width sOffset="0" a="3.20" b="0" c="0" d="0"/>
                        <roadMark sOffset="0" type="solid" weight="standard" color="standard" width="0.13"/>
                        <speed sOffset="0" max="11.18"/>
                    </lane>
                 </right>
            </laneSection>
        </lanes>
        <objects/>
        <signals/>
    </road>
    <road name="South Fraser Street" length="0.20000000" id="2784" junction="-1">
        <link>
            <predecessor elementType="junction" elementId="9"/>
            <successor elementType="junction" elementId="7"/>
        </link>
        <type s="0" type="town"/>
        <planView>
            <geometry s="0.00000000" x="494.43028595" y="279.90726101" hdg="-0.85608382" length="0.20000000">
                <line/>
            </geometry>
        </planView>
        <elevationProfile>
            <elevation s="0" a="0.00" b="0" c="0" d="0"/>
        </elevationProfile>
        <lateralProfile/>
        <lanes>
            <laneSection s="0">
                <center>
                    <lane id="0" type="none" level="true">
                        <link/>
                        <roadMark sOffset="0" type="solid" weight="standard" color="standard" width="0.13"/>
                    </lane>
                </center>
                <right>
                    <lane id="-1" type="driving" level="true">
                        <link/>
                        <width sOffset="0" a="3.20" b="0" c="0" d="0"/>
                        <roadMark sOffset="0" type="solid" weight="standard" color="standard" width="0.13"/>
                        <speed sOffset="0" max="11.18"/>
                    </lane>
                 </right>
            </laneSection>
        </lanes>
        <objects/>
        <signals/>
    </road>
    <road name="Miller Alley" length="3.59658236" id="2785" junction="-1">
        <link>
            <predecessor elementType="junction" elementId="10"/>
            <successor elementType="junction" elementId="11"/>
        </link>
        <type s="0" type="town"/>
        <planView>
            <geometry s="0.00000000" x="447.84625466" y="229.59174886" hdg="2.30932042" length="3.59658236">
                <line/>
            </geometry>
        </planView>
        <elevationProfile>
            <elevation s="0" a="0.00" b="0" c="0" d="0"/>
        </elevationProfile>
        <lateralProfile/>
        <lanes>
            <laneSection s="0">
                <center>
                    <lane id="0" type="none" level="true">
                        <link/>
                        <roadMark sOffset="0" type="solid" weight="standard" color="standard" width="0.13"/>
                    </lane>
                </center>
                <right>
                    <lane id="-1" type="restricted" level="true">
                        <link/>
                        <width sOffset="0" a="3.20" b="0" c="0" d="0"/>
                        <roadMark sOffset="0" type="solid" weight="standard" color="standard" width="0.13"/>
                        <speed sOffset="0" max="5.56"/>
                    </lane>
                 </right>
            </laneSection>
        </lanes>
        <objects/>
        <signals/>
    </road>
    <road name="Miller Alley" length="22.58013652" id="2786" junction="-1">
        <link>
            <predecessor elementType="junction" elementId="12"/>
            <successor elementType="junction" elementId="10"/>
        </link>
        <type s="0" type="town"/>
        <planView>
            <geometry s="0.00000000" x="471.14130902" y="204.00899214" hdg="2.30919022" length="22.58013652">
                <line/>
            </geometry>
        </planView>
        <elevationProfile>
            <elevation s="0" a="0.00" b="0" c="0" d="0"/>
        </elevationProfile>
        <lateralProfile/>
        <lanes>
            <laneSection s="0">
                <center>
                    <lane id="0" type="none" level="true">
                        <link/>
                        <roadMark sOffset="0" type="solid" weight="standard" color="standard" width="0.13"/>
                    </lane>
                </center>
                <right>
                    <lane id="-1" type="restricted" level="true">
                        <link/>
                        <width sOffset="0" a="3.20" b="0" c="0" d="0"/>
                        <roadMark sOffset="0" type="solid" weight="standard" color="standard" width="0.13"/>
                        <speed sOffset="0" max="5.56"/>
                    </lane>
                 </right>
            </laneSection>
        </lanes>
        <objects/>
        <signals/>
    </road>
    <road name="Miller Alley" length="24.03550211" id="2787" junction="-1">
        <link>
            <predecessor elementType="junction" elementId="13"/>
            <successor elementType="junction" elementId="12"/>
        </link>
        <type s="0" type="town"/>
        <planView>
            <geometry s="0.00000000" x="493.65559965" y="179.29177823" hdg="2.30965225" length="24.03550211">
                <line/>
            </geometry>
        </planView>
        <elevationProfile>
            <elevation s="0" a="0.00" b="0" c="0" d="0"/>
        </elevationProfile>
        <lateralProfile/>
        <lanes>
            <laneSection s="0">
                <center>
                    <lane id="0" type="none" level="true">
                        <link/>
                        <roadMark sOffset="0" type="solid" weight="standard" color="standard" width="0.13"/>
                    </lane>
                </center>
                <right>
                    <lane id="-1" type="restricted" level="true">
                        <link/>
                        <width sOffset="0" a="3.20" b="0" c="0" d="0"/>
                        <roadMark sOffset="0" type="solid" weight="standard" color="standard" width="0.13"/>
                        <speed sOffset="0" max="5.56"/>
                    </lane>
                 </right>
            </laneSection>
        </lanes>
        <objects/>
        <signals/>
    </road>
    <road name="South Burrowes Street" length="0.76917643" id="2788" junction="-1">
        <link>
            <predecessor elementType="junction" elementId="14"/>
            <successor elementType="junction" elementId="15"/>
        </link>
        <type s="0" type="town"/>
        <planView>
            <geometry s="0.00000000" x="388.57228850" y="193.49890418" hdg="2.31927586" length="0.76917643">
                <line/>
            </geometry>
        </planView>
        <elevationProfile>
            <elevation s="0" a="0.00" b="0" c="0" d="0"/>
        </elevationProfile>
        <lateralProfile/>
        <lanes>
            <laneSection s="0">
                <center>
                    <lane id="0" type="none" level="true">
                        <link/>
                        <roadMark sOffset="0" type="solid" weight="standard" color="standard" width="0.13"/>
                    </lane>
                </center>
                <right>
                    <lane id="-1" type="driving" level="true">
                        <link/>
                        <width sOffset="0" a="3.20" b="0" c="0" d="0"/>
                        <roadMark sOffset="0" type="solid" weight="standard" color="standard" width="0.13"/>
                        <speed sOffset="0" max="11.18"/>
                    </lane>
                 </right>
            </laneSection>
        </lanes>
        <objects/>
        <signals/>
    </road>
    <road name="South Burrowes Street" length="38.31242289" id="2789" junction="-1">
        <link>
            <predecessor elementType="junction" elementId="16"/>
            <successor elementType="junction" elementId="14"/>
        </link>
        <type s="0" type="town"/>
        <planView>
            <geometry s="0.00000000" x="421.26382435" y="158.64795570" hdg="2.30313322" length="15.75945608">
                <line/>
            </geometry>
            <geometry s="15.75945608" x="410.72690693" y="170.36690732" hdg="2.30313322" length="6.89449176">
                <paramPoly3 aU="0.00000000" bU="5.17062848" cU="5.16197664" dU="-3.44232979" aV="-0.00000000" bV="0.00000000" cV="0.51805723" dV="-0.28631599" pRange="normalized"/>
            </geometry>
            <geometry s="22.65394785" x="405.94767939" y="175.33566796" hdg="2.33740394" length="15.65847505">
                <line/>
            </geometry>
        </planView>
        <elevationProfile>
            <elevation s="0" a="0.00" b="0" c="0" d="0"/>
        </elevationProfile>
        <lateralProfile/>
        <lanes>
            <laneSection s="0">
                <center>
                    <lane id="0" type="none" level="true">
                        <link/>
                        <roadMark sOffset="0" type="solid" weight="standard" color="standard" width="0.13"/>
                    </lane>
                </center>
                <right>
                    <lane id="-1" type="driving" level="true">
                        <link/>
                        <width sOffset="0" a="3.20" b="0" c="0" d="0"/>
                        <roadMark sOffset="0" type="solid" weight="standard" color="standard" width="0.13"/>
                        <speed sOffset="0" max="11.18"/>
                    </lane>
                 </right>
            </laneSection>
        </lanes>
        <objects/>
        <signals/>
    </road>
    <road name="South Burrowes Street" length="34.57767565" id="2790" junction="-1">
        <link>
            <predecessor elementType="junction" elementId="17"/>
            <successor elementType="junction" elementId="16"/>
        </link>
        <type s="0" type="town"/>
        <planView>
            <geometry s="0.00000000" x="450.67274410" y="125.94921325" hdg="2.30329124" length="34.57767565">
                <line/>
            </geometry>
        </planView>
        <elevationProfile>
            <elevation s="0" a="0.00" b="0" c="0" d="0"/>
        </elevationProfile>
        <lateralProfile/>
        <lanes>
            <laneSection s="0">
                <center>
                    <lane id="0" type="none" level="true">
                        <link/>
                        <roadMark sOffset="0" type="solid" weight="standard" color="standard" width="0.13"/>
                    </lane>
                </center>
                <right>
                    <lane id="-1" type="driving" level="true">
                        <link/>
                        <width sOffset="0" a="3.20" b="0" c="0" d="0"/>
                        <roadMark sOffset="0" type="solid" weight="standard" color="standard" width="0.13"/>
                        <speed sOffset="0" max="11.18"/>
                    </lane>
                 </right>
            </laneSection>
        </lanes>
        <objects/>
        <signals/>
    </road>
    <road name="South Burrowes Street" length="0.20000000" id="2791" junction="-1">
        <link>
            <predecessor elementType="junction" elementId="18"/>
            <successor elementType="junction" elementId="17"/>
        </link>
        <type s="0" type="town"/>
        <planView>
            <geometry s="0.00000000" x="453.38255563" y="122.93503312" hdg="2.30270484" length="0.20000000">
                <line/>
            </geometry>
        </planView>
        <elevationProfile>
            <elevation s="0" a="0.00" b="0" c="0" d="0"/>
        </elevationProfile>
        <lateralProfile/>
        <lanes>
            <laneSection s="0">
                <center>
                    <lane id="0" type="none" level="true">
                        <link/>
                        <roadMark sOffset="0" type="solid" weight="standard" color="standard" width="0.13"/>
                    </lane>
                </center>
                <right>
                    <lane id="-1" type="driving" level="true">
                        <link/>
                        <width sOffset="0" a="3.20" b="0" c="0" d="0"/>
                        <roadMark sOffset="0" type="solid" weight="standard" color="standard" width="0.13"/>
                        <speed sOffset="0" max="11.18"/>
                    </lane>
                 </right>
            </laneSection>
        </lanes>
        <objects/>
        <signals/>
    </road>
    <road name="Cresson Alley" length="40.19782719" id="2792" junction="-1">
        <link>
            <predecessor elementType="junction" elementId="19"/>
            <successor elementType="junction" elementId="20"/>
        </link>
        <type s="0" type="town"/>
        <planView>
            <geometry s="0.00000000" x="371.22659352" y="110.87507689" hdg="2.30681867" length="40.19782719">
                <line/>
            </geometry>
        </planView>
        <elevationProfile>
            <elevation s="0" a="0.00" b="0" c="0" d="0"/>
        </elevationProfile>
        <lateralProfile/>
        <lanes>
            <laneSection s="0">
                <center>
                    <lane id="0" type="none" level="true">
                        <link/>
                        <roadMark sOffset="0" type="solid" weight="standard" color="standard" width="0.13"/>
                    </lane>
                </center>
                <right>
                    <lane id="-1" type="restricted" level="true">
                        <link/>
                        <width sOffset="0" a="3.20" b="0" c="0" d="0"/>
                        <roadMark sOffset="0" type="solid" weight="standard" color="standard" width="0.13"/>
                        <speed sOffset="0" max="5.56"/>
                    </lane>
                 </right>
            </laneSection>
        </lanes>
        <objects/>
        <signals/>
    </road>
    <road name="Cresson Alley" length="41.27813338" id="2793" junction="-1">
        <link>
            <predecessor elementType="junction" elementId="21"/>
            <successor elementType="junction" elementId="19"/>
        </link>
        <type s="0" type="town"/>
        <planView>
            <geometry s="0.00000000" x="403.50664534" y="76.00698868" hdg="2.31897742" length="0.20000000">
                <line/>
            </geometry>
            <geometry s="0.20000000" x="403.37058399" y="76.15357418" hdg="2.31897742" length="4.44216262">
                <paramPoly3 aU="0.00000000" bU="3.33162193" cU="3.33162155" dU="-2.22108126" aV="-0.00000000" bV="0.00000000" cV="-0.00319873" dV="0.00142321" pRange="normalized"/>
            </geometry>
            <geometry s="4.64216262" x="400.34985234" y="79.41056491" hdg="2.31833874" length="29.71439614">
                <line/>
            </geometry>
            <geometry s="34.35655876" x="380.14886138" y="101.20196922" hdg="2.31833874" length="5.55999991">
                <paramPoly3 aU="0.00000000" bU="4.16999992" cU="4.16999992" dU="-2.78000006" aV="-0.00000000" bV="-0.00000000" cV="0.00167505" dV="-0.00055835" pRange="normalized"/>
            </geometry>
            <geometry s="39.91655867" x="376.36814044" y="105.27870173" hdg="2.31874043" length="1.36157471">
                <line/>
            </geometry>
        </planView>
        <elevationProfile>
            <elevation s="0" a="0.00" b="0" c="0" d="0"/>
        </elevationProfile>
        <lateralProfile/>
        <lanes>
            <laneSection s="0">
                <center>
                    <lane id="0" type="none" level="true">
                        <link/>
                        <roadMark sOffset="0" type="solid" weight="standard" color="standard" width="0.13"/>
                    </lane>
                </center>
                <right>
                    <lane id="-1" type="restricted" level="true">
                        <link/>
                        <width sOffset="0" a="3.20" b="0" c="0" d="0"/>
                        <roadMark sOffset="0" type="solid" weight="standard" color="standard" width="0.13"/>
                        <speed sOffset="0" max="5.56"/>
                    </lane>
                 </right>
            </laneSection>
        </lanes>
        <objects/>
        <signals/>
    </road>
    <road name="Burrowes Road" length="1.05198644" id="2794" junction="-1">
        <link>
            <predecessor elementType="junction" elementId="22"/>
            <successor elementType="junction" elementId="23"/>
        </link>
        <type s="0" type="town"/>
        <planView>
            <geometry s="0.00000000" x="346.06272935" y="239.38147355" hdg="-0.83234977" length="1.05198644">
                <line/>
            </geometry>
        </planView>
        <elevationProfile>
            <elevation s="0" a="0.00" b="0" c="0" d="0"/>
        </elevationProfile>
        <lateralProfile/>
        <lanes>
            <laneSection s="0">
                <center>
                    <lane id="0" type="none" level="true">
                        <link/>
                        <roadMark sOffset="0" type="solid" weight="standard" color="standard" width="0.13"/>
                    </lane>
                </center>
                <right>
                    <lane id="-1" type="driving" level="true">
                        <link/>
                        <width sOffset="0" a="3.20" b="0" c="0" d="0"/>
                        <roadMark sOffset="0" type="solid" weight="standard" color="standard" width="0.13"/>
                        <speed sOffset="0" max="6.71"/>
                    </lane>
                 </right>
            </laneSection>
        </lanes>
        <objects/>
        <signals>
            <signal id="106066792_7" s="1.05" t="-1.60" orientation="+" dynamic="yes" zOffset="5" country="OpenDRIVE" type="1000011" subtype="20" height="0.78" width="0.26">
                <validity fromLane="0" toLane="0"/>
            </signal>
            <signal id="106066792_8" s="1.05" t="-1.60" orientation="+" dynamic="yes" zOffset="5" country="OpenDRIVE" type="1000011" subtype="30" height="0.78" width="0.26">
                <validity fromLane="0" toLane="0"/>
            </signal>
            <signal id="106066792_9" s="1.05" t="-1.60" orientation="+" dynamic="yes" zOffset="5" country="OpenDRIVE" type="1000001" subtype="-1" height="0.78" width="0.26">
                <validity fromLane="0" toLane="0"/>
            </signal>
        </signals>
    </road>
    <road name="Burrowes Road" length="24.72208354" id="2795" junction="-1">
        <link>
            <predecessor elementType="junction" elementId="24"/>
            <successor elementType="junction" elementId="22"/>
        </link>
        <type s="0" type="town"/>
        <planView>
            <geometry s="0.00000000" x="325.41383470" y="260.88790981" hdg="-0.80329753" length="24.72208354">
                <line/>
            </geometry>
        </planView>
        <elevationProfile>
            <elevation s="0" a="0.00" b="0" c="0" d="0"/>
        </elevationProfile>
        <lateralProfile/>
        <lanes>
            <laneSection s="0">
                <center>
                    <lane id="0" type="none" level="true">
                        <link/>
                        <roadMark sOffset="0" type="solid" weight="standard" color="standard" width="0.13"/>
                    </lane>
                </center>
                <right>
                    <lane id="-1" type="driving" level="true">
                        <link/>
                        <width sOffset="0" a="3.20" b="0" c="0" d="0"/>
                        <roadMark sOffset="0" type="solid" weight="standard" color="standard" width="0.13"/>
                        <speed sOffset="0" max="6.71"/>
                    </lane>
                 </right>
            </laneSection>
        </lanes>
        <objects/>
        <signals>
            <signal id="419131839_1" s="24.72" t="-1.60" orientation="+" dynamic="yes" zOffset="5" country="OpenDRIVE" type="1000011" subtype="30" height="0.78" width="0.26">
                <validity fromLane="0" toLane="0"/>
            </signal>
        </signals>
    </road>
    <road name="Burrowes Road" length="463.49834678" id="2796" junction="-1">
        <link>
            <predecessor elementType="junction" elementId="25"/>
            <successor elementType="junction" elementId="24"/>
        </link>
        <type s="0" type="town"/>
        <planView>
            <geometry s="0.00000000" x="-0.00000103" y="603.54921311" hdg="-0.81546132" length="16.05110357">
                <line/>
            </geometry>
            <geometry s="16.05110357" x="11.00355385" y="591.86333677" hdg="-0.81546132" length="6.36104835">
                <paramPoly3 aU="0.00000000" bU="4.77074393" cU="4.76886227" dU="-3.17936124" aV="0.00000000" bV="-0.00000000" cV="-0.23389573" dV="0.13641689" pRange="normalized"/>
            </geometry>
            <geometry s="22.41215192" x="15.29274048" y="587.16598687" hdg="-0.82773241" length="4.07350037">
                <paramPoly3 aU="0.00000000" bU="3.05512260" cU="3.05501043" dU="-2.03668255" aV="0.00000000" bV="-0.00000000" cV="0.04548524" dV="-0.02605894" pRange="normalized"/>
            </geometry>
            <geometry s="26.48565230" x="18.06292811" y="584.17944427" hdg="-0.82354479" length="6.70559739">
                <paramPoly3 aU="0.00000000" bU="5.02919780" cU="5.02920072" dU="-3.35280187" aV="0.00000000" bV="0.00000000" cV="-0.00062847" dV="-0.00173965" pRange="normalized"/>
            </geometry>
            <geometry s="33.19124969" x="22.61848319" y="579.25888028" hdg="-0.82483245" length="64.08046298">
                <line/>
            </geometry>
            <geometry s="97.27171267" x="66.10861358" y="532.19600432" hdg="-0.82483245" length="6.70560000">
                <paramPoly3 aU="0.00000000" bU="5.02920000" cU="5.02920000" dU="-3.35280000" aV="0.00000000" bV="0.00000000" cV="-0.00031036" dV="0.00010345" pRange="normalized"/>
            </geometry>