<?xml version="1.0" encoding="UTF-8"?>

<!-- generated on 2023-03-21 15:41:44 by Eclipse SUMO GUI Version 1.15.0
-->

<configuration xmlns:xsi="http://www.w3.org/2001/XMLSchema-instance" xsi:noNamespaceSchemaLocation="http://sumo.dlr.de/xsd/sumoConfiguration.xsd">

    <input>
        <net-file value="./testXODR_23-03-21T15-17-43_300mArc_Line_Spiral_RR.net.xml"/>
        <route-files value="./testXODR_23-03-21T15-17-43_300mArc_Line_Spiral_RR.rou.xml"/>
    </input>

</configuration>
